/****************
/** DATOS SADI **
/****************
/  versión: gyr_24_v34_1.dyr
/  fecha: 30-11-2024
/  EMOD: Nicolás de San Juan - Trinidad Ubici 
/  modificaciones: ver archivo 
/			



/10 'USRMDL' 1 'MCTRL5' 8 0 15 40 8 100
/            1  1 0 1   0 0 0    1 1 1    0   0 0 0 0 
/            2200 1100 1100 0 0 0 550 550 550 550 0
/            0.05 0.0 5.0 1.0 2.0 1.0 0.1 1.0 8.0 0
/            0.01 0.0 5.0 0.0 2.0 1.0 0.1 0.5 10.0
/            1.05 1.0 0.1 0.1 5.0
/            1.05 1.0 0.1 0.1 5.0 /
/'1 ' 'USRDCL'  'CDCAB2' 18 1
/10 44 30 100
/1 0 0 0 0 0 0 0 3 2
/4.02
/140.0  3.930
/60.00  0  50.0  0  0  0
/0 0 0 0 0 0 0 0
/100 0 0 0 0 0 0
/0.005 0.06 0.80 0.2 0.1 2.0 0.3
/0.005 0.055 0.80 0.2 0.1 2.0 0.3
/80.0 0.0005 40.0 0.0004
/0 0/
/'2 ' 'USRDCL'  'CDCAB2' 18 1
/10 44 30 100
/1 0 0 0 0 0 0 0 3 2
/4.02
/140.0  3.930
/60.00  0  50.0  0  0  0
/0 0 0 0 0 0 0 0
/100 0 0 0 0 0 0
/0.005 0.06 0.80 0.2 0.1 2.0 0.3
/0.005 0.055 0.80 0.2 0.1 2.0 0.3
/80.0 0.0005 40.0 0.0004
/0 0/ 
/'3 ' 'USRDCL'  'CDCAB2' 18 1
/10 44 30 100
/1 0 0 0 0 0 0 0 3 2
/4.02
/140.0  3.930
/60.00  0  50.0  0  0  0
/0 0 0 0 0 0 0 0
/100 0 0 0 0 0 0
/0.005 0.06 0.80 0.2 0.1 2.0 0.3
/0.005 0.055 0.80 0.2 0.1 2.0 0.3
/80.0 0.0005 40.0 0.0004
/0 0/
/'4 ' 'USRDCL'  'CDCAB2' 18 1
/10 44 30 100
/1 0 0 0 0 0 0 0 3 2
/4.02
/140.0  3.930
/60.00  0  50.0  0  0  0
/0 0 0 0 0 0 0 0
/100 0 0 0 0 0 0
/0.005 0.06 0.80 0.2 0.1 2.0 0.3
/0.005 0.055 0.80 0.2 0.1 2.0 0.3
/80.0 0.0005 40.0 0.0004
/0 0/
/  5002  'USRMDL' 0 'POWDEC' 0 2 45 35 0 13 
/            5002 0 0 0 0 0 0 0 0 0 0 0 0 0 0 0 0 0 0 1 
/            0 0 0 0 0 0 0 0 0 0 0 0 0 0 0 0 0 0 0 0 0 0 6 0 0 
/     49.00   0.15 0.045  48.90 0.15 0.04  48.80 0.15 0.06 48.70 0.15 0.065
/     48.60   0.15 0.09   48.50 0.15 0.10  48.40 0.15 0.02
/     49.20   0.15  48.90   0.15   0.40  0.10
/     49.20   0.15  48.90   0.15   0.33  0.02
/      0.05     0.00  /   GARABI  
/ 30, 'GENCLS', 1, 0.0, 0.0 /

   1600 'GENROU' 6     14.500      0.49000E-01   2.1040      0.15100    
          6.8000       0.0000       2.1400       2.0300      0.27000    
         0.37000      0.18800      0.14200      0.94300E-01  0.39060    /ACAJTG06
   1600 'IEEEVC' 6     0.0000      0.50000E-01/ACAJTG06
   1600 'USRMDL' 6  'PSS400'     3   0   6  21  18   4   1     0 3     0
               5            1       4.0000       4.0000       0.0000    
          4.0000       0.0000       4.0000      0.29412       1.0000    
         0.50000      0.10000       5.0000      0.43700      0.11800    
         0.33000      0.24000E-01   0.0000       0.0000       0.0000    
          0.0000      0.10000     -0.10000    /ACAJTG06
   1600 'USRMDL' 6  'DC4UEL'     9   0   1  18   4   5   1
         0.11000E-01   5.0000      0.50000      0.10000       1.5000    
         0.49000      0.41500       2.0000      0.16000     -0.46300    
         0.39000     -0.45300      0.62000     -0.44200      0.90300    
        -0.42900       1.1170       0.0000    /ACAJTG06
   1600 'USRMDL' 6  'DC4OEL_2'    10   0   8  21   4   8   2   0,,,,,,,
         0.11000E-01  0.10000       2.5000      -1.0000       3.0300    
          1.8000       10.000       1.3000       20.000       1.0100    
          60.000       0.0000       0.0000       0.0000       0.0000    
          0.0000       0.0000       0.0000       0.0000       0.0000    
          0.0000    /ACAJTG06
   1600 'AC7B'   6     0.0000       15.435       3.7350       8.3700
         0.49000E-01   1.0000       0.0000       23.860       0.0000
          23.860       0.0000       0.0000       99.000       0.0000
          0.0000       0.0000       1.0000      0.20000       1.2000
          1.0000       3.0000       17.000       0.0000       4.5620
         0.58000E-01   6.0830       0.5800    /ACAJTG06
 1600 'IEESGO'  6   15            6.6000       0.5            0.59
        0.00000E+00   0.000       20.0        0.00000E+00     0.0
       0.83100      0.26000                                           / ACAJTG06
   1601 'GENROU' 1     9.4400      0.60000E-01   3.0000      0.50000E-01
          6.5000       0.0000       2.4700       1.9000      0.25800
         0.70000      0.20600      0.10000      0.92900E-01  0.41070    /ACAJTG01
   1601 'IEEEVC' 1     0.0000      0.50000E-01/ACAJTG01
   1601 'USRMDL' 1  'PSS400'     3   0   6  21  18   4   1     0 3     0
               5            1       2.0000       2.0000       0.0000    
          2.0000       0.0000       2.0000      0.18083       1.0000    
         0.50000      0.10000       10.000      0.31000      0.67000E-01
         0.20800      0.54000E-01  0.60000E-01  0.21000E-01  0.53000E-01
         0.16000E-01  0.10000     -0.10000    /ACAJTG01
   1601 'USRMDL' 1  'DC4UEL'     9   0   1  18   4   5   0
         0.11000E-01   5.0000      0.50000      0.10000      0.50000    
         0.49000      0.40170       2.0000      0.12300     -0.40500    
         0.33000     -0.38400      0.53700     -0.36400      0.95100    
        -0.32200       1.0000       0.0000    /ACAJTG01
   1601 'USRMDL' 1  'DC4OEL_2'    10   0   8  21   4   8   2   1,,,,,,,
         0.11000E-01  0.10000       5.0000      -1.0000       3.3600    
          1.7000       10.000       1.0100       30.000       1.0100    
          30.000      0.11000E-01  0.20000       2.0000      0.30000    
         -1.0000      0.50000       1.1000       2.0000       1.0100    
          60.000    /ACAJTG01
   1601 'AC7B'   1    0.50000E-02   4.2735       1.8288       2.4409
         0.40000E-01   1.0000       0.0000       38.000       0.0000
          30.000       0.0000       0.0000       99.000       0.0000
          0.0000       0.0000       1.0000      0.10000       1.2000
          1.0000       1.7500       30.000       0.0000       4.6000
         0.23530       6.1300       1.9737    /ACAJTG01
 1601 'USRMDL' 1 'WESTG1' 5  0 0 36 8 19
       0.010   0.043     2.00     8.00    1.00     0.0158   .000414
      -100.0   0.300    0.608     0.00    0.20     0.000      0.000
       0.173   0.000    0.380    0.709   0.522     1.000      0.608
       1.177  339.0    -0.50    563.0    0.20     25.00      3.000
       -2.25   643.0     2.00     3.00    0.03     56.765     48.25
       10.00 / A.DEL CAJON TG1
 1602 'GENROU'  2    9.4400      0.60000E-01   3.0000      0.50000E-01
        5.53000      0.00000E+00   2.4700       1.9000      0.25800
       0.70000      0.20600      0.10000      0.92900E-01  0.41070    /ACAJTG02
 1602 'USRMDL' 2 'WESTG1' 5  0 0 36 8 19
       0.010   0.043     2.00     8.00    0.60     0.0150   .000414
      -100.0   0.300    0.469     0.00    0.20     0.000      0.000
       0.173   0.000    0.286    0.700   0.401     1.000      0.469
       1.177  337.0    -0.50    563.0    0.20     25.00      3.000
       -1.71   582.6     2.00     3.00    0.03     56.765     48.25
       10.00 /ACAJTG02
   1602 'EXAC1'  2     0.0000       1.0000       1.0000       1856.0
         0.85000E-01   38.000       0.0000       1.7500      0.57300E-01
          1.0133      0.10000       1.2000       1.0000       9.3000
         0.23530       12.400       1.9737    /ACAJTG02
   1602 'MAXEX2' 2          1       3.0110       1.0500       60.000
          2.0000       3.0000       7.0000      0.50000       1.0000
         0.60000      -1.0000       /ACAJTG02

   1603 'GENROU' 3     9.4400      0.60000E-01   3.0000      0.50000E-01
          6.5000       0.0000       2.4700       1.9000      0.25800
         0.70000      0.20600      0.10000      0.92900E-01  0.41070    /ACAJTG03
   1603 'IEEEVC' 3     0.0000      0.50000E-01/ACAJTG03
   1603 'USRMDL' 3  'PSS400'     3   0   6  21  18   4   1     0 3     0
               5            1       2.0000       2.0000       0.0000    
          2.0000       0.0000       2.0000      0.18083       1.0000    
         0.50000      0.10000       2.5000      0.31000      0.67000E-01
         0.20800      0.54000E-01  0.60000E-01  0.21000E-01  0.53000E-01
         0.16000E-01  0.10000     -0.10000    /ACAJTG03
   1603 'USRMDL' 3  'DC4UEL'     9   0   1  18   4   5   0
         0.11000E-01   5.0000      0.50000      0.10000       1.5000    
         0.49000      0.40170       2.0000      0.12300     -0.40500    
         0.33000     -0.38400      0.53700     -0.36400      0.95100    
        -0.32200       1.0000       0.0000    /ACAJTG03
   1603 'USRMDL' 3  'DC4OEL'    10   0   8  21   4   8   2   1,,,,,,,
         0.11000E-01  0.10000       2.5000      -1.0000       3.3600    
          1.7000       10.000       1.0100       30.000       1.0100    
          30.000      0.11000E-01  0.20000       2.0000      0.30000    
         -1.0000      0.50000       1.1000       2.0000       1.0100    
          60.000    /ACAJTG03
   1603 'AC7B'   3    0.50000E-02   8.3060       3.5540       4.5400
         0.42500E-01   1.0000       0.0000       25.000       0.0000
          25.000       0.0000       0.0000       99.000       0.0000
          0.0000       0.0000       1.0000      0.10000       1.2000
          1.0000       1.7500       30.000       0.0000       4.6000
         0.23530       6.1300       1.9737    /ACAJTG03
 1603 'USRMDL' 3 'WESTG1' 5  0 0 36 8 19
       0.010   0.043     2.00     8.00    1.00     0.0140   .00046
      -100.0   0.300    0.620     0.00    0.20     0.000      0.000
       0.173   0.000    0.400    0.762   0.450     0.868      0.62
       1.177  325.0    -0.50    563.0    0.20     25.00      3.000
       -1.63   622     2.00     3.00    0.03     56.765     48.25
       10.00 / A.DEL CAJON TG3
   1604 'GENROU' 4     9.4400      0.60000E-01   3.0000      0.50000E-01
          6.5000       0.0000       2.4700       1.9000      0.25800
         0.70000      0.20600      0.10000      0.92900E-01  0.41070    /ACAJTG04
   1604 'IEEEVC' 4     0.0000      0.50000E-01/ACAJTG04
   1604 'USRMDL' 4  'PSS400'     3   0   6  21  18   4   1     0 3     0
               5            1       2.0000       2.0000       0.0000    
          2.0000       0.0000       2.0000      0.18083       1.0000    
         0.50000      0.10000       2.5000      0.31000      0.67000E-01
         0.20800      0.54000E-01  0.60000E-01  0.21000E-01  0.53000E-01
         0.16000E-01  0.10000     -0.10000    /ACAJTG04
   1604 'USRMDL' 4  'DC4UEL'     9   0   1  18   4   5   0
         0.11000E-01   5.0000      0.50000      0.10000       1.5000    
         0.49000      0.40170       2.0000      0.12300     -0.40500    
         0.33000     -0.38400      0.53700     -0.36400      0.95100    
        -0.32200       1.0000       0.0000    /ACAJTG04
   1604 'USRMDL' 4  'DC4OEL'    10   0   8  21   4   8   2   1,,,,,,,
         0.11000E-01  0.10000       2.5000      -1.0000       3.3600    
          1.7000       10.000       1.0100       30.000       1.0100    
          30.000      0.11000E-01  0.20000       2.0000      0.30000    
         -1.0000      0.50000       1.1000       2.0000       1.0100    
          60.000    /ACAJTG04
   1604 'AC7B'   4     0.0000       8.1000       3.0000       5.0000
         0.46000E-01   1.0000       0.0000       25.000       0.0000
          25.000       0.0000       0.0000       99.000       0.0000
          0.0000       0.0000       1.0000      0.10000       1.2000
          1.0000       1.7500       30.000       0.0000       4.6000
         0.23530       6.1300       1.9737    /ACAJTG04
 1605 'GENROU'  5    9.4400      0.60000E-01   3.0000      0.50000E-01
        5.5300      0.00000E+00   2.4700       1.9000      0.25800
       0.70000      0.20600      0.10000      0.92900E-01  0.41070    /ACAJTG05
 1605 'USRMDL' 5 'WESTG1' 5  0 0 36 8 19
       0.010   0.043     2.00     6.00    0.80     0.0140   .000451
      -100.0   0.300    0.508     0.00    0.20     0.000      0.000
       0.173   0.000    0.300    0.4500   0.400    0.800      0.508
       1.177  327.0    -0.50    563.0    0.20     25.00      3.000
       -2.525   641.8     2.00     3.00    0.03     56.765     48.25
       10.00 /ACAJTG05
   1605 'EXAC1'  5     0.0000       1.0000       1.0000       1687.0
         0.76000E-01   38.000       0.0000       1.7500      0.66600E-01
          1.3860      0.10000       1.2000       1.0000       9.3000
         0.23530       12.400       1.9737    /ACAJTG05
   1605 'MAXEX2' 5          1       3.0110       1.0500       60.000
          2.0000       3.0000       7.0000      0.50000       1.0000
         0.60000      -1.0000       /ACAJTG05
 1606 'GENROU'  1   7.35 0.042  0.82 0.074   4.46  0.00 1.8900 1.8400 0.262
                   0.4580 0.2180 0.1500  0.17600  0.56900  / ACAJTV
 1606 'USRMDL' 1 'RTTVAC' 4  0  0  14  4  11  0.010   0.23200  0.123   5.0 
                   1.16   24.21   168.8 0.924   0.0200   0.0488   160.000
                   -100.0   7.3  0.0  /ACAJTV
 1606 'USRMDL' 1  'PSTVAC'  3 0 3 24 11 2 0 0 0  0.1 8.92 2.0 2.0 0.1 0.03 0.1 0.03
                            15.0 0.5 -0.5 1.0 0.3 0.02 0.5 0.05 -0.01 0.02 -0.02 0.05
                            -0.02 2.5 0.004 0.01/ACAJTV
 1610 'GENSAL'  1    7.0000      0.60000E-01  0.80000E-01   3.5000
       0.00000E+00   1.5000      0.64000      0.32000      0.10000
       0.70000E-01  0.10000      0.50000    /                          DIVIHI01
 1610 'GENSAL'  2    7.0000      0.60000E-01  0.80000E-01   3.5000
       0.00000E+00   1.5000      0.64000      0.32000      0.10000
       0.70000E-01  0.10000      0.50000    /                          DIVIHI02
   1611 'GENSAL' 1     8.5250      0.50000E-01  0.70000E-01   5.081 
          0.0000      0.80000      0.60000      0.26000      0.17000
         0.13000      0.67400E-01  0.22500      /ALICHI01
 1611 'USRMDL'  1 'BBCSP2'     4     0     1    15     4     3     0
       0.70000E-01  0.20000E-01   170.00       3.9200       1.5000
       0.44000E-02  0.43000E-01   7.6000      -6.7500      0.10000E-01
        6.2500      -5.0000      0.00000E+00   10.000       1.0000    /ALICHI01
 1611 'USRMDL'  1  'PWX5P4'       3      0      3     22      9      2
       ,,,
       0.14000       9.0000       2.0000       2.0000      0.17000
       0.40000E-01  0.17000      0.40000E-01   7.3      0.10000
      -0.50000E-01  0.00000E+00  0.50000      0.20000E-01  0.50000
       0.50000E-01 -0.50000E-01  0.20000E-01 -0.20000E-01  0.05 -0.045 2.5 / ALICHI01
  1611 'USRMDL'    1  'IGS5473'   5 0 0 15 4 2
               0.400E-01    1.00       -1.00       0.270E-02   0.100
                0.00       0.100E-02    1.00        2.50        2.00
               0.900        0.00        0.00        0.00        0.00    /ALICHI01
   1612 'GENSAL' 2     8.5250      0.50000E-01  0.70000E-01   5.081
          0.0000      0.80000      0.60000      0.26000      0.17000
         0.13000      0.67400E-01  0.22500      /ALICHI02
 1612 'USRMDL'  2 'BBCSP2'     4     0     1    15     4     3     0
       0.70000E-01  0.20000E-01   170.00       3.9200       1.5000
       0.44000E-02  0.43000E-01   7.6000      -6.7500      0.10000E-01
        6.2500      -5.0000      0.00000E+00   10.000       1.0000    /ALICHI02
 1612 'USRMDL'  2  'PWX5P4'       3      0      3     22      9      2
       ,,,
       0.14000       9.0000       2.0000       2.0000      0.17000
       0.40000E-01  0.17000      0.40000E-01   7.3      0.10000
      -0.50000E-01  0.00000E+00  0.50000      0.20000E-01  0.50000
       0.50000E-01 -0.50000E-01  0.20000E-01 -0.20000E-01  0.05 -0.045 2.5 / ALICHI02
  1612 'USRMDL'    2  'IGS5473'   5 0 0 15 4 2
               0.400E-01    1.00       -1.00       0.270E-02   0.100
                0.00       0.100E-02    1.00        2.50        2.00
               0.900        0.00        0.00        0.00        0.00    /ALICHI02
   1613 'GENSAL' 3     8.5250      0.50000E-01  0.70000E-01   5.081
          0.0000      0.80000      0.60000      0.26000      0.17000
         0.13000      0.67400E-01  0.22500      /ALICHI03
 1613 'USRMDL'  3 'BBCSP2'     4     0     1    15     4     3     0
       0.70000E-01  0.20000E-01   170.00       3.9200       1.5000
       0.44000E-02  0.43000E-01   7.6000      -6.7500      0.10000E-01
        6.2500      -5.0000      0.00000E+00   10.000       1.0000    /ALICHI03
 1613 'USRMDL'  3  'PWX5P4'       3      0      3     22      9      2
       ,,,
       0.14000       9.0000       2.0000       2.0000      0.17000
       0.40000E-01  0.17000      0.40000E-01   7.3      0.10000
      -0.50000E-01  0.00000E+00  0.50000      0.20000E-01  0.50000
       0.50000E-01 -0.50000E-01  0.20000E-01 -0.20000E-01  0.05 -0.045 2.5 / ALICHI03
  1613 'USRMDL'    3  'IGS5473'   5 0 0 15 4 2
               0.400E-01    1.00       -1.00       0.270E-02   0.100
                0.00       0.100E-02    1.00        2.50        2.00
               0.900        0.00        0.00        0.00        0.00    /ALICHI03
   1614 'GENSAL' 4     8.5250      0.50000E-01  0.70000E-01   5.081
          0.0000      0.80000      0.60000      0.26000      0.17000
         0.13000      0.67400E-01  0.22500      /ALICHI04
 1614 'USRMDL'  4 'BBCSP2'     4     0     1    15     4     3     0
       0.70000E-01  0.20000E-01   170.00       3.9200       1.5000
       0.44000E-02  0.43000E-01   7.6000      -6.7500      0.10000E-01
        6.2500      -5.0000      0.00000E+00   10.000       1.0000    /ALICHI04
 1614 'USRMDL'  4  'PWX5P4'       3      0      3     22      9      2
       ,,,
       0.14000       9.0000       2.0000       2.0000      0.17000
       0.40000E-01  0.17000      0.40000E-01   7.3      0.10000
      -0.50000E-01  0.00000E+00  0.50000      0.20000E-01  0.50000
       0.50000E-01 -0.50000E-01  0.20000E-01 -0.20000E-01  0.05 -0.045 2.5 / ALICHI04
  1614 'USRMDL'    4  'IGS5473'   5 0 0 15 4 2
               0.400E-01    1.00       -1.00       0.270E-02   0.100
                0.00       0.100E-02    1.00        2.50        2.00
               0.900        0.00        0.00        0.00        0.00    /ALICHI04
 1620 'GENROU'  1    9.0000      0.50000E-01   1.3000      0.50000E-01
        5.60000      0.00000E+00   1.4400       1.4400      0.16800
       0.33600      0.11900      0.80000E-01  0.10000      0.37500    /AVALTV11
 1620 'TGOV1'   1   0.08    0.02   0.7  0.0   0.0   2.5   0.0        /AVALTV11
 1620 'GENROU'  2    9.0000      0.50000E-01   1.3000      0.50000E-01
        5.60000      0.00000E+00   1.4400       1.4400      0.16800
       0.33600      0.11900      0.80000E-01  0.10000      0.37500    /AVALTV12
 1620 'TGOV1'   2   0.12    0.02   0.7  0.0   0.0   2.5   0.0        /AVALTV12
 1621 'GENROU'  1    7.2000      0.48000E-01  0.90000      0.60000E-01
        9.7000      0.00000E+00   1.4000       1.3440      0.20000
       0.40000      0.16000      0.10700      0.10000      0.37500    /AVALTG21
 1622 'GENROU'  2    5.2000      0.50000E-01  0.80000      0.60000E-01
        8.700      0.00000E+00   2.1000       1.8000      0.18800
       0.50000      0.13000      0.90000E-01  0.10000      0.37500    /AVALTG22
 1622 'USRMDL'  2  'ABBSP2'       4      0      1     15      4      3
       0
       0.60000E-01  0.2000E-01   350.00       20.0      2.0
       0.18000E-01  0.9000E-01   7.000      -7.00      0.30000E-01
        5.0000      -4.000      0.000       10.000       2.0000    / AVALTG22
 1622 'TGOV1'   2   0.043   0.02   0.9100  0.0   0.0   1.0   0.0        /AVALTG22
 1623 'GENROU'  3    5.2000      0.50000E-01  0.80000      0.60000E-01
        8.7000      0.00000E+00   2.1000       1.8000      0.18800
       0.50000      0.13000      0.90000E-01  0.10000      0.37500    /AVALTG23
 1623 'USRMDL'  3  'ABBSP2'       4      0      1     15      4      3
       0
       0.60000E-01  0.2000E-01   350.00       20.0      2.0
       0.18000E-01  0.9000E-01   7.000      -7.00      0.30000E-01
        5.0000      -4.000      0.000       10.000       2.0000    / AVALTG23
 1623 'TGOV1'   3   0.043   0.02   0.910  0.0   0.0   1.0   0.0        /AVALTG23
1630 'GENROE'  1  11.680000 0.045500 1.650000 0.055000
                     7.1800 0.0000 1.8200 1.3000 0.2220 0.2750
                     0.1355 0.0734 0.113775 0.30936/ ROCATG01
1630 'USRMDL'  1 'EX2100E' 4  0  1  24 5 2
        1
	605.0	605.0	140.8	0.0	0.015	0.015	1.0 
	-1.0	81.7	1.5	-14.11604	11.3	0.0053	0.0053
	0.24	1.0	0.4	1.2	0.00070118	0.49939755	1.09	 
	0.0	1.1	0.01	 /ROCATG01
1630 'USRMDL'  1 'EX2UEL' 9  0  0  32 3 2
	5.0	0.10	1.0	1000.0	1.6	0.25	0.0
	0.8	0.5	138.6	0.0	-0.565144	0.1200014	
	-0.5507398	0.2400028	-0.5382178	0.3600042	-0.5271502	0.4800056	-0.5170993	
	0.600007	-0.5076414	0.6600077	-0.5029941	0.7200084	-0.4983293	0.780009	
	-0.4935999	0.8400098	-0.4887423	0.9000105	-0.4358871 /ROCATG01
1630 'USRMDL'  1 'EX2OEL' 10  0  0  11 3 1
      2.70718232044, 120.0, 0.004, 0.7, 2.65561694291, 3.31860036832, 0.2, 1.0, 1.0, 140.80, 0.0 /ROCATG01
1630 'PSS2B'   1  
       2,   0,   3,    0,   5,   1,
       2.0,  2.0, 0,  2.0, 0.0, 2.0, 0.1339, 1.0, 0.5, 0.1,
       15.0, 0.2, 0.012,  0.1,  0.012, 0.15,  0.3, 99, -99,
       99.0, -99.0, 0.1, -0.1/ ROCATG01
 1630 'USRMDL' 1 'GAST2P'  5  0  0  31  13  4
       20.000      0.00000E+00  0.50000E-01   1.0000
       0.40000E-01  0.20000       124.00      0.25000       1.0000
       0.32000      0.10000E-01  0.77000       1.0000      0.50000E-01
        1.0000      0.40000      0.00000E+00  0.20000      0.80000
        15.000       2.5000       450.00       3.3000       700.00
        550.00     -0.30000       1.3000      0.50000       1001.0
       0.23000       1001.0                                           / ROCATG01
 1631 'GENSAL'  1    4.6300      0.50000E-01  0.82000E-01   3.100000
       0.00000E+00  0.87000      0.61700      0.32000      0.24000
       0.18000      0.10000      0.50000    /                           ARROHI01
 1631 'SCRX'    1   0.12500       8.0000       200.00      0.50000E-01
       -4.8000       6.0000      0.00000E+00   10.000    /              ARROHI01
 1631 'USRMDL' 1  'HYGV7P'  5  0  0 20  7  1  0.00000E+00  0.00000E+00
       0.00000E+00  0.00000E+00  0.25000       1.0000       15.000
       0.20000E-01  0.67000E-01 -0.67000E-01  0.20000       1.0000
       0.40000       3.0000      0.50000       1.0000       1.5000
        1.0000       42.500      0.00000E+00/                           ARROHI01
 1632 'GENSAL'  2    4.6300      0.50000E-01  0.82000E-01   3.100000
       0.00000E+00  0.87000      0.61700      0.32000      0.24000
       0.18000      0.10000      0.50000    /                           ARROHI02
 1632 'SCRX'    2   0.12500       8.0000       200.00      0.50000E-01
       -4.8000       6.0000      0.00000E+00   10.000    /              ARROHI02
 1632 'USRMDL' 2  'HYGV7P'  5  0  0 20  7  1  0.00000E+00  0.00000E+00
       0.00000E+00  0.00000E+00  0.25000       1.0000       15.000
       0.20000E-01  0.67000E-01 -0.67000E-01  0.20000       1.0000
       0.40000       3.0000      0.50000       1.0000       1.5000
        1.0000       42.500      0.00000E+00/                           ARROHI02
 1633 'GENSAL'  3    4.6300      0.50000E-01  0.82000E-01   3.10000
       0.00000E+00  0.87000      0.61700      0.32000      0.24000
       0.18000      0.10000      0.50000    /                           ARROHI03
 1633 'SCRX'    3   0.12500       8.0000       200.00      0.50000E-01
       -4.8000       6.0000      0.00000E+00   10.000    /              ARROHI03
 1633 'USRMDL' 3  'HYGV7P'  5  0  0 20  7  1  0.00000E+00  0.00000E+00
       0.00000E+00  0.0  0.25000       1.0000       15.000
       0.20000E-01  0.67000E-01 -0.67000E-01  0.20000       1.0000
       0.40000       3.0000      0.50000       1.0000       1.5000
        1.0000       42.500      0.00000E+00/                           ARROHI03
1634 'GENSAL'  1     3.16 0.042 0.03 0.38 0 2.49 1.85 0.21 0.20 0.05 0.27 1.1 /LDLMDI01

1634 'USRMDL' 1 'CCTAGK' 4  0 2 22 9 4  
                 1634   1
                 1.0  1.0 1.0 0.0 0.0
                 0.2  -0.1 0.02 20.0 0.059
                 0.025 2.5 0.048 177 0.55
                 11.89 0 0.143 10. 0 
                 1.0 0.01 / LDLMDI01

1634 'GENSAL'  2     3.16 0.042 0.03 0.38 0 2.49 1.85 0.21 0.20 0.05 0.27 1.1 /LDLMDI01

1634 'USRMDL' 2 'CCTAGK' 4  0 2 22 9 4  
                 1634   1
                 1.0  1.0 1.0 0.0 0.0
                 0.2  -0.1 0.02 20.0 0.059
                 0.025 2.5 0.048 177 0.55
                 11.89 0 0.143 10. 0 
                 1.0 0.01 / LDLMDI01

 1641 'GENSAL'  1    5.1000      0.40000E-01  0.10000       3.4000
       0.00000E+00   0.9200      0.55000      0.21000      0.16000
       0.12000      0.22800      0.61300    / CDPIHI01
 1641 'STAB2A'  1    1.0000       4.5000       1.1000       2.0000
       0.21000       1.0000      0.10000E-01  0.30000E-01/CDPIHI01
 1641 'USRMDL' 1  'RATCHP'  4  0  0 15  3  2  0.00         0.01
        0.0000      10.00       -10.0          51.26        2.20
        1.0000       8.09        -7.28         8.09        -7.28
        1.2000      0.00000E+00   10.000    /CDPIHI01
 1641 'WPIDHY'  1   0.50000     -0.22000      1.68000      0.33700
       0.56000      0.04000      0.50000      0.10000     -0.10000
       1.00000      0.00000      2.00000      0.9230      -0.00000
       0.00000E+00  0.16250      0.68800      0.81840      0.81100
       0.92300      0.92300                 / CDPIHI01
 1642 'GENSAL'  2    5.1000      0.40000E-01  0.10000       3.4000
       0.00000E+00   0.9200      0.55000      0.21000      0.16000
       0.12000      0.22800      0.61300    /CDPIHI01
 1642 'STAB2A'  2    1.0000       4.5000       1.1000       2.0000
       0.21000       1.0000      0.10000E-01  0.30000E-01/CDPIHI02
 1642 'USRMDL' 2  'RATCHP'  4  0  0 15  3  2  0.00         0.01
        0.0000      10.00       -10.0          51.26        2.20
        1.0000       8.09        -7.28         8.09        -7.28
        1.2000      0.00000E+00   10.000    /CDPIHI02
 1642 'WPIDHY'  2   0.50000     -0.18000      1.9000      0.5100
       0.57000      0.04000      0.50000      0.1000     -0.10000
       1.00000      0.00000      2.00000      0.9200      0.00000
       0.00000E+00  0.20500      0.80000      0.8037      0.975700
       0.92000      0.92000                 /CDPIHI01
 1644  'GENSAL'  1    4.910      0.70000E-01  0.46   8.000
       0.00000E+00   2.569      1.5000      0.268000      0.19500
       0.1  0.3270000      0.6870000    /  TRAPITG01
 1644  'GENSAL'  2    4.910      0.70000E-01  0.46   8.000
       0.00000E+00   2.569      1.5000      0.268000      0.19500
       0.1  0.3270000      0.6870000    /  TRAPITG02
 1644  'GENSAL'  3    4.910      0.70000E-01  0.46   8.000
       0.00000E+00   2.569      1.5000      0.268000      0.19500
       0.1  0.3270000      0.6870000    /  TRAPITG03
 1644  'GENSAL'  4    4.00      0.70000E-01  0.46   6.000
       0.00000E+00   2.1      1.5000      0.268000      0.19500
       0.1  0.3270000      0.6870000    /  TRAPITGSO
 1646  'GENSAL'  5    4.530      0.70000E-01  0.46   2.500
       0.00000E+00   2.37      1.5000      0.268000      0.19500
       0.1  0.3270000      0.6870000    /  TRAPITGTB
 1649 'GENROU'  2   6.600        0.028         0.9         0.056
        1.915       0.0           1.93         1.7         0.24
       0.36         0.165       0.1          0.028        0.56       /CHIUTG02
 1649 'EXAC1'   2   0.05  1  1  40  0.01  7.0  -0.17  0.44  0.05
                    0.2   0.1   0.57  1  1  0  1.2  0 /CHIUTG02
 1649 'USRMDL'  2  'PWX5P4'       3      0      3     22      9      2
       ,,,
       0.10000       3.7200       2.0000       2.0000      0.30000
       0.40000       0.6700       0.0000      10.000      0.050000
      -0.05000       0.0000       0.30000      0.30000E-01  0.50000
       0.50000E-01 -0.50000E-01  0.20000E-01 -0.20000E-01  0.04 -0.05 2.0 / CHIUTG02
 1650 'GENROU'  1   6.600        0.028         0.9         0.056
        1.915       0.0           1.93         1.7         0.24
       0.36         0.165       0.1          0.028        0.56       /CHIUTG01
 1650 'EXAC1'   1   0.05  1  1  40  0.01  7.0  -0.17  0.44  0.05
                    0.2   0.1   0.57  1  1  0  1.2  0  /CHIUTG01
 1650 'USRMDL'  1  'PWX5P4'       3      0      3     22      9      2
       ,,,
       0.10000       3.7200       2.0000       2.0000      0.30000
       0.40000       0.6700       0.0000      10.000      0.050000
      -0.05000       0.0000       0.30000      0.30000E-01  0.50000
       0.50000E-01 -0.50000E-01  0.20000E-01 -0.20000E-01  0.04 -0.05 2.0 / CHIUTG01

 1651 'GENSAL'  1    12.000      0.17500      0.21000       5.2600
       0.00000E+00  0.96300      0.63000      0.35000      0.25300
       0.16000      0.14900      0.44600    /
 1651 'USRMDL'  1  'ABBSP2'       4      0      1     15      4      3
       1
       0.60000E-01  0.23000E-01   350.00       3.0300      0.94000
       0.18000E-01  0.89000E-01   9.5000      -9.5000      0.30000E-01
        8.0000      -6.5000      0.24000       10.000       2.0000    / PDAGHI01
 1651 'USRMDL'  1  'PWX5P4'       3      0      3     22      9      2
       ,,,
       0.12000       10.520       2.0000       2.0000      0.18000
       0.30000E-01  0.18000      0.30000E-01   5.0      0.10000
      -0.10000      0.00000E+00  0.30000      0.50000E-01  0.50000
       0.50000E-01 -0.50000E-01  0.20000E-01 -0.20000E-01  0.05 -0.05 2.5 / PDAGHI01

  1651 'USRMDL'    1  'IGS5473'   5 0 0 15 4 2 
               0.400E-01    1.00       -1.00       0.270E-02   0.100    
                0.00        0.00        2.00       0.100        1.35    
               0.950       0.300        0.00        0.00        0.00    /PDAGHI01


 1652 'GENSAL'  2    12.000      0.17500      0.21000       5.2600
       0.00000E+00  0.96300      0.63000      0.35000      0.25300
       0.16000      0.14900      0.44600    /
 1652 'USRMDL'  2  'ABBSP2'       4      0      1     15      4      3
       1
       0.60000E-01  0.23000E-01   350.00       3.0300      0.94000
       0.18000E-01  0.89000E-01   9.5000      -9.5000      0.30000E-01